6
4 5
C         11.98760       -0.01570       -0.01810
C         13.21460       -0.01730       -0.01700
C         14.57250       -0.01860       -0.01550
C         15.79980       -0.01880       -0.01430
H         10.99360       -0.01440       -0.01899
H         16.79380       -0.01896       -0.01333
