62
61
C          3.43760        0.01405        4.80943
C          3.49295        1.20940        5.51888
H          3.56614        2.16110        4.98297
C          3.45534        1.19542        6.90944
C          3.36236       -0.01400        7.59056
H          3.33284       -0.02529        8.68481
C          3.30701       -1.20934        6.88108
C          3.34458       -1.19537        5.49052
H          3.30102       -2.13598        4.93226
O          3.39890        2.13600        7.46780
C          3.37360        2.12640        8.40440
H          4.20458        1.56528        8.77792
H          2.46124        1.67339        8.73194
C          3.42610        3.12960        8.77290
H          2.59518        3.69074        8.39928
H          4.33853        3.58254        8.44545
C          3.39710        3.11870        9.84250
H          4.22802        2.55755       10.21611
H          2.48466        2.66578       10.16993
C          3.44960        4.12180       10.21100
H          2.61863        4.68293        9.83747
H          4.36200        4.57475        9.88349
C          3.42070        4.11090       11.28050
H          4.25167        3.54977       11.65403
H          2.50830        3.65795       11.60801
C          3.47320        5.11400       11.64900
H          2.64223        5.67513       11.27547
H          4.38560        5.56695       11.32149
C          3.44430        5.10310       12.71860
H          4.27527        4.54199       13.09214
H          2.53191        4.65013       13.04613
C          3.49680        6.10630       13.08710
H          4.40918        6.55928       12.75958
H          3.46788        6.09537       14.15665
H          2.66583        6.66743       12.71356
O          3.33390       -2.16110        7.41710
C          3.30860       -2.17060        8.35370
H          2.45833       -1.61679        8.69317
H          4.20168       -1.72481        8.73917
C          3.23690       -3.18100        8.69830
H          4.08717       -3.73480        8.35882
H          2.34381       -3.62676        8.31283
C          3.20800       -3.19190        9.76790
H          2.35773       -2.63810       10.10738
H          4.10109       -2.74614       10.15337
C          3.13630       -4.20230       10.11250
H          3.98662       -4.75607        9.77311
H          2.24326       -4.64808        9.72695
C          3.10730       -4.21320       11.18210
H          2.25692       -3.65951       11.52149
H          4.00030       -3.76733       11.56765
C          3.03570       -5.22360       11.52670
H          3.88608       -5.77730       11.18734
H          2.14274       -5.66954       11.14114
C          3.00670       -5.23440       12.59630
H          2.15632       -4.68071       12.93567
H          3.89965       -4.78845       12.98188
C          2.93510       -6.24490       12.94090
H          2.04214       -6.69081       12.55529
H          2.90606       -6.25579       14.01045
H          3.78550       -6.79857       12.60154
H          3.46555        0.02449        3.77786
